@<TRIPOS>MOLECULE
LIG
 41 43 0 0 0
SMALL
GASTEIGER

@<TRIPOS>ATOM
1 C1 9.3809 2.5425 0.8054 C.3 1 UNL1 0.0365
2 O1 8.0730 1.9989 0.7825 O.3 1 UNL1 -0.3814
3 C2 7.5280 1.8942 -0.5248 C.3 1 UNL1 0.0645
4 C3 6.0296 1.5249 -0.4508 C.3 1 UNL1 0.0552
5 H1 5.8620 0.7393 0.2938 H 1 UNL1 0.0502
6 C4 5.5510 1.0499 -1.8384 C.3 1 UNL1 -0.0323
7 C5 5.1579 2.3424 -2.5324 C.3 1 UNL1 -0.0370
8 C6 4.4623 3.1277 -1.4265 C.3 1 UNL1 0.0209
9 N1 5.1131 2.6776 -0.1778 N.3 1 UNL1 -0.1713
10 S 5.2291 3.7031 1.1491 S.O2 1 UNL1 0.0612
11 O2 6.1933 3.2278 2.1081 O.2 1 UNL1 -0.1528
12 O3 5.2724 5.0663 0.6532 O.2 1 UNL1 -0.1528
13 C7 3.6441 3.5358 1.9862 C.ar 1 UNL1 0.1063
14 C8 2.5713 4.3990 1.6649 C.ar 1 UNL1 -0.0335
15 C9 1.4121 4.4376 2.4649 C.ar 1 UNL1 -0.0377
16 C10 1.3639 3.6294 3.5895 C.ar 1 UNL1 0.0474
17 C11 2.4398 2.7982 3.8980 C.ar 1 UNL1 0.0501
18 C12 3.5825 2.7179 3.1242 C.ar 1 UNL1 -0.0226
19 C13 2.1232 2.1263 5.1607 C.2 1 UNL1 0.2496
20 O4 2.8232 1.3487 5.7682 O.2 1 UNL1 -0.2817
21 C14 0.7131 2.6243 5.5566 C.2 1 UNL1 0.2910
22 O5 0.0932 2.2746 6.5359 O.2 1 UNL1 -0.2661
23 N2 0.3500 3.5175 4.5566 N.am 1 UNL1 -0.2672
24 C15 -0.9154 4.1997 4.5089 C.3 1 UNL1 0.0087
25 H2 9.6492 2.7392 1.8473 H 1 UNL1 0.0523
26 H3 9.4313 3.4862 0.2529 H 1 UNL1 0.0523
27 H4 10.0896 1.8213 0.3904 H 1 UNL1 0.0523
28 H5 8.0790 1.0909 -1.0302 H 1 UNL1 0.0576
29 H6 7.6794 2.8242 -1.0844 H 1 UNL1 0.0576
30 H7 4.6694 0.4063 -1.7358 H 1 UNL1 0.0282
31 H8 6.3085 0.4918 -2.3994 H 1 UNL1 0.0282
32 H9 4.5155 2.1817 -3.4042 H 1 UNL1 0.0279
33 H10 6.0522 2.8780 -2.8744 H 1 UNL1 0.0279
34 H11 3.3959 2.8774 -1.3885 H 1 UNL1 0.0444
35 H12 4.5730 4.1997 -1.6063 H 1 UNL1 0.0444
36 H13 2.6560 5.0799 0.8188 H 1 UNL1 0.0638
37 H14 0.6050 5.1216 2.2218 H 1 UNL1 0.0637
38 H15 4.4158 2.0926 3.4317 H 1 UNL1 0.0645
39 H16 -1.5240 3.9366 5.3798 H 1 UNL1 0.0433
40 H17 -1.4507 3.8985 3.6045 H 1 UNL1 0.0433
41 H18 -0.7517 5.2809 4.5058 H 1 UNL1 0.0433
@<TRIPOS>BOND
     1     1     2    1
     2     2     3    1
     3     4     6    1
     4     6     7    1
     5     7     8    1
     6     8     9    1
     7     4     9    1
     8     9    10    1
     9    10    11    2
    10    10    12    2
    11    10    13    1
    12    13    14   ar
    13    14    15   ar
    14    15    16   ar
    15    16    17   ar
    16    17    18   ar
    17    13    18   ar
    18    17    19    1
    19    19    20    2
    20    19    21    1
    21    21    22    2
    22    21    23   am
    23    16    23    1
    24    23    24    1
    25     4     5    1
    26     4     3    1
    27     1    25    1
    28     1    26    1
    29     1    27    1
    30     3    28    1
    31     3    29    1
    32     6    30    1
    33     6    31    1
    34     7    32    1
    35     7    33    1
    36     8    34    1
    37     8    35    1
    38    14    36    1
    39    15    37    1
    40    18    38    1
    41    24    39    1
    42    24    40    1
    43    24    41    1
