@<TRIPOS>MOLECULE
LIG
 38 39 0 0 0
SMALL
GASTEIGER

@<TRIPOS>ATOM
1 O1 3.0884 0.8277 1.0697 O.2 1 UNL1 -0.2758
2 C1 2.6305 -0.2778 0.8094 C.2 1 UNL1 0.2137
3 N1 1.4539 -0.7661 1.3297 N.am 1 UNL1 -0.3118
4 C2 0.6098 0.0148 2.2044 C.3 1 UNL1 0.0297
5 C3 0.4490 -0.7486 3.4778 C.2 1 UNL1 -0.0742
6 C4 -0.7281 -1.1222 3.9963 C.2 1 UNL1 -0.1012
7 C5 3.2930 -1.2546 -0.1269 C.3 1 UNL1 0.0322
8 C6 4.6265 -0.7517 -0.6632 C.3 1 UNL1 0.0325
9 C7 5.2548 -1.8273 -1.5210 C.2 1 UNL1 0.2177
10 O2 4.6060 -2.7837 -1.9340 O.2 1 UNL1 -0.2755
11 N2 6.5832 -1.5822 -1.8175 N.am 1 UNL1 -0.2855
12 C8 7.3843 -2.4978 -2.5270 C.ar 1 UNL1 0.0341
13 C9 8.2795 -2.0027 -3.4707 C.ar 1 UNL1 -0.0290
14 C10 9.0646 -2.8972 -4.2055 C.ar 1 UNL1 0.0343
15 C11 9.9380 -2.4345 -5.2719 C.2 1 UNL1 0.2105
16 O3 9.8399 -1.2967 -5.7146 O.2 1 UNL1 -0.2852
17 C12 10.9827 -3.4200 -5.7734 C.2 1 UNL1 0.1228
18 O4 12.0172 -2.9457 -6.2327 O.2 1 UNL1 -0.3095
19 N3 10.6850 -4.7187 -5.7193 N.am 1 UNL1 -0.5746
20 C13 9.8807 -5.1821 -4.7630 C.2 1 UNL1 0.0829
21 O5 9.7782 -6.3778 -4.4833 O.2 1 UNL1 -0.3129
22 C14 9.0276 -4.2589 -3.9687 C.ar 1 UNL1 0.0099
23 C15 8.1473 -4.7526 -3.0016 C.ar 1 UNL1 -0.0504
24 C16 7.3167 -3.8753 -2.2960 C.ar 1 UNL1 -0.0398
25 H1 1.1196 -1.6770 1.0388 H 1 UNL1 0.1490
26 H2 -0.3422 0.1640 1.6897 H 1 UNL1 0.0506
27 H3 1.0542 0.9958 2.4071 H 1 UNL1 0.0506
28 H4 1.3630 -0.9870 4.0183 H 1 UNL1 0.0582
29 H5 -1.6689 -0.8928 3.5057 H 1 UNL1 0.0532
30 H6 -0.7716 -1.6588 4.9394 H 1 UNL1 0.0532
31 H7 2.6036 -1.4490 -0.9582 H 1 UNL1 0.0363
32 H8 3.4440 -2.1994 0.4110 H 1 UNL1 0.0363
33 H9 5.3053 -0.5098 0.1653 H 1 UNL1 0.0363
34 H10 4.4874 0.1548 -1.2695 H 1 UNL1 0.0363
35 H11 6.8903 -0.6172 -1.8041 H 1 UNL1 0.1548
36 H12 8.3354 -0.9397 -3.6925 H 1 UNL1 0.0643
37 H13 8.1008 -5.8215 -2.8076 H 1 UNL1 0.0625
38 H14 6.6412 -4.2859 -1.5476 H 1 UNL1 0.0636
@<TRIPOS>BOND
     1     1     2    2
     2     2     3   am
     3     3     4    1
     4     4     5    1
     5     5     6    2
     6     2     7    1
     7     7     8    1
     8     8     9    1
     9     9    10    2
    10     9    11   am
    11    11    12    1
    12    12    13   ar
    13    13    14   ar
    14    14    15    1
    15    15    16    2
    16    15    17    1
    17    17    18    2
    18    17    19    1
    19    19    20    1
    20    20    21    2
    21    20    22    1
    22    14    22   ar
    23    22    23   ar
    24    23    24   ar
    25    12    24   ar
    26     3    25    1
    27     4    26    1
    28     4    27    1
    29     5    28    1
    30     6    29    1
    31     6    30    1
    32     7    31    1
    33     7    32    1
    34     8    33    1
    35     8    34    1
    36    11    35    1
    37    13    36    1
    38    23    37    1
    39    24    38    1
