@<TRIPOS>MOLECULE
LIG
 38 40 0 0 0
SMALL
GASTEIGER

@<TRIPOS>ATOM
1 C1 4.6927 -2.2877 2.7172 C.3 1 UNL1 0.0365
2 O1 4.1834 -1.0351 2.2910 O.3 1 UNL1 -0.3814
3 C2 4.9385 -0.4604 1.2320 C.3 1 UNL1 0.0645
4 C3 4.5206 1.0091 1.0222 C.3 1 UNL1 0.0552
5 H1 3.4357 1.1160 1.1285 H 1 UNL1 0.0502
6 C4 4.9606 1.4779 -0.3768 C.3 1 UNL1 -0.0323
7 C5 6.3541 2.0313 -0.1433 C.3 1 UNL1 -0.0370
8 C6 6.2023 2.7784 1.1750 C.3 1 UNL1 0.0209
9 N1 5.1952 1.9994 1.9275 N.3 1 UNL1 -0.1713
10 S 5.3738 1.7872 3.5852 S.O2 1 UNL1 0.0612
11 O2 4.4542 0.8115 4.1136 O.2 1 UNL1 -0.1528
12 O3 6.7916 1.7302 3.8819 O.2 1 UNL1 -0.1528
13 C7 4.7555 3.3313 4.2619 C.ar 1 UNL1 0.1063
14 C8 5.6057 4.1690 5.0185 C.ar 1 UNL1 -0.0336
15 C9 5.0828 5.2645 5.7242 C.ar 1 UNL1 -0.0379
16 C10 3.7210 5.4843 5.6492 C.ar 1 UNL1 0.0449
17 C11 2.8951 4.6540 4.8947 C.ar 1 UNL1 0.0499
18 C12 3.3745 3.5650 4.1965 C.ar 1 UNL1 -0.0226
19 C13 1.5244 5.1495 5.0561 C.2 1 UNL1 0.2494
20 O4 0.5217 4.7040 4.5499 O.2 1 UNL1 -0.2817
21 C14 1.6430 6.3807 5.9992 C.2 1 UNL1 0.2887
22 O5 0.7404 7.0871 6.3863 O.2 1 UNL1 -0.2663
23 N2 2.9914 6.4868 6.2842 N.am 1 UNL1 -0.2782
24 H2 4.1675 -2.5780 3.6314 H 1 UNL1 0.0523
25 H3 5.7628 -2.2269 2.9396 H 1 UNL1 0.0523
26 H4 4.5071 -3.0425 1.9490 H 1 UNL1 0.0523
27 H5 4.6980 -1.0428 0.3346 H 1 UNL1 0.0576
28 H6 6.0141 -0.5407 1.4240 H 1 UNL1 0.0576
29 H7 4.3010 2.2788 -0.7321 H 1 UNL1 0.0282
30 H8 4.9523 0.6831 -1.1302 H 1 UNL1 0.0282
31 H9 6.6976 2.6767 -0.9569 H 1 UNL1 0.0279
32 H10 7.0754 1.2114 -0.0360 H 1 UNL1 0.0279
33 H11 5.8164 3.7888 1.0043 H 1 UNL1 0.0444
34 H12 7.1687 2.8522 1.6803 H 1 UNL1 0.0444
35 H13 6.6675 3.9406 5.1010 H 1 UNL1 0.0638
36 H14 5.7289 5.8900 6.3315 H 1 UNL1 0.0637
37 H15 2.7017 2.8935 3.6704 H 1 UNL1 0.0645
38 H16 3.3639 7.1993 6.8947 H 1 UNL1 0.1552
@<TRIPOS>BOND
     1     1     2    1
     2     2     3    1
     3     4     6    1
     4     6     7    1
     5     7     8    1
     6     8     9    1
     7     4     9    1
     8     9    10    1
     9    10    11    2
    10    10    12    2
    11    10    13    1
    12    13    14   ar
    13    14    15   ar
    14    15    16   ar
    15    16    17   ar
    16    17    18   ar
    17    13    18   ar
    18    17    19    1
    19    19    20    2
    20    19    21    1
    21    21    22    2
    22    21    23   am
    23    16    23    1
    24     4     5    1
    25     4     3    1
    26     1    24    1
    27     1    25    1
    28     1    26    1
    29     3    27    1
    30     3    28    1
    31     6    29    1
    32     6    30    1
    33     7    31    1
    34     7    32    1
    35     8    33    1
    36     8    34    1
    37    14    35    1
    38    15    36    1
    39    18    37    1
    40    23    38    1
